[TITLE]
;;Project Title/Notes

[OPTIONS]
;;Option             Value
FLOW_UNITS           CMS
INFILTRATION         GREEN_AMPT
FLOW_ROUTING         DYNWAVE
LINK_OFFSETS         DEPTH
MIN_SLOPE            0
ALLOW_PONDING        NO
SKIP_STEADY_STATE    NO

START_DATE           07/15/2023
START_TIME           07:00:00
REPORT_START_DATE    07/15/2023
REPORT_START_TIME    07:00:00
END_DATE             07/15/2023
END_TIME             10:10:00
SWEEP_START          01/01
SWEEP_END            12/31
DRY_DAYS             0
REPORT_STEP          00:10:00
WET_STEP             00:10:00
DRY_STEP             00:10:00
ROUTING_STEP         0.1
RULE_STEP            00:00:00

INERTIAL_DAMPING     PARTIAL
NORMAL_FLOW_LIMITED  BOTH
FORCE_MAIN_EQUATION  H-W
VARIABLE_STEP        0.75
LENGTHENING_STEP     0
MIN_SURFAREA         1.14
MAX_TRIALS           8
HEAD_TOLERANCE       0.0015
SYS_FLOW_TOL         5
LAT_FLOW_TOL         5
MINIMUM_STEP         0.5
THREADS              1

[EVAPORATION]
;;Data Source    Parameters
;;-------------- ----------------
CONSTANT         0.0
DRY_ONLY         NO

[RAINGAGES]
;;Name           Format    Interval SCF      Source    
;;-------------- --------- ------ ------ ----------
0821             VOLUME    0:10     1.0      TIMESERIES 3h1yearRain     

[SUBCATCHMENTS]
;;Name           Rain Gage        Outlet           Area     %Imperv  Width    %Slope   CurbLen  SnowPack        
;;-------------- ---------------- ---------------- -------- -------- -------- -------- -------- ----------------
sub100           0821             sub63            0.25     88.62    50       0.512588977814 0                        
sub101           0821             sub65            0.25     84.29    50       0.271032989025 0                        
sub102           0821             RoaJ435          0.25     78.19    50       0.455763995647 0                        
sub103           0821             sub65            0.25     98.1     50       0.792492985725 0                        
sub104           0821             sub104           0.25     11.23    50       0.838868021965 0                        
sub122           0821             RoaJ1077         0.25     35.44    50       0.334769010544 0                        
sub123           0821             sub160           0.25     31.28    50       0.339688003063 0                        
sub124           0821             sub161           0.25     20       50       0.227669999003 0                        
sub125           0821             sub162           0.25     22.76    50       0.3296200037 0                        
sub131           0821             sub168           0.25     45.85    50       0.300294995308 0                        
sub132           0821             sub170           0.25     90.98    50       0.141194999218 0                        
sub133           0821             sub171           0.25     96.15    50       0.205504998565 0                        
sub134           0821             sub171           0.25     56.88    50       0.692484974861 0                        
sub135           0821             RoaJ379          0.25     66.41    50       0.689236998558 0                        
sub136           0821             RoaJ337          0.25     73.86    50       0.974599003792 0                        
sub137           0821             sub100           0.25     72.77    50       5.72525978088 0                        
sub138           0821             sub101           0.25     72.79    50       5.60720014572 0                        
sub139           0821             RoaJ433          0.25     77.02    50       3.07066011429 0                        
sub140           0821             sub104           0.25     73.17    50       0.368027001619 0                        
sub141           0821             sub104           0.25     2.55     50       0.258520007133 0                        
sub158           0821             sub195           0.25     20.76    50       0.441516011953 0                        
sub159           0821             RoaJ1            0.25     65.45    50       0.212705999613 0                        
sub160           0821             RoaJ2            0.25     80.19    50       0.366840988398 0                        
sub161           0821             RoaJ411          0.25     75.12    50       0.435083985329 0                        
sub162           0821             RoaJ409          0.25     49.53    50       0.336847007275 0                        
sub163           0821             RoaJ408          0.25     52.9     50       0.461059987545 0                        
sub164           0821             RoaJ284          0.25     44.5     50       0.406457990408 0                        
sub165           0821             RoaJ493          0.25     53.82    50       0.409606993198 0                        
sub166           0821             RoaJ492          0.25     50.41    50       0.185951992869 0                        
sub167           0821             RoaJ491          0.25     37.91    50       0.750065028667 0                        
sub168           0821             RoaJ490          0.25     30.9     50       0.307590007782 0                        
sub169           0821             RoaJ287          0.25     50.51    50       0.316756010056 0                        
sub170           0821             RoaJ927          0.25     64.31    50       0.5379139781 0                        
sub171           0821             RoaJ378          0.25     70.9     50       1.02256000042 0                        
sub172           0821             RoaJ378          0.25     88.36    50       0.738547027111 0                        
sub173           0821             RoaJ336          0.25     71.32    50       3.03031992912 0                        
sub174           0821             sub173           0.25     1.12     50       6.52433013916 0                        
sub175           0821             sub212           0.25     35.4     50       7.16335010529 0                        
sub176           0821             RoaJ296          0.25     68.66    50       4.66283988953 0                        
sub177           0821             RoaJ297          0.25     50.26    50       0.204931005836 0                        
sub195           0821             sub232           0.25     36       50       0.298498004675 0                        
sub196           0821             RoaJ842          0.25     73.57    50       0.5878469944 0                        
sub197           0821             RoaJ835          0.25     90.01    50       0.202736005187 0                        
sub198           0821             sub235           0.25     83.46    50       0.190809994936 0                        
sub199           0821             sub237           0.25     73.16    50       0.261543989182 0                        
sub200           0821             sub238           0.25     71.33    50       0.417125999928 0                        
sub201           0821             RoaJ787          0.25     55.17    50       0.293727010489 0                        
sub202           0821             sub238           0.25     31.71    50       0.35950499773 0                        
sub203           0821             sub202           0.25     24.02    50       0.396582007408 0                        
sub204           0821             sub240           0.25     44.38    50       0.256999999285 0                        
sub205           0821             RoaJ599          0.25     36.78    50       0.323289990425 0                        
sub206           0821             RoaJ5            0.25     47.28    50       0.47109401226 0                        
sub207           0821             RoaJ934          0.25     45.52    50       2.22627997398 0                        
sub208           0821             RoaJ933          0.25     46.58    50       4.36168003082 0                        
sub209           0821             sub245           0.25     88.54    50       0.609790027142 0                        
sub210           0821             RoaJ335          0.25     64.22    50       4.07260990143 0                        
sub211           0821             sub248           0.25     16.36    50       7.47722005844 0                        
sub212           0821             sub249           0.25     71.88    50       0.567884981632 0                        
sub213           0821             RoaJ987          0.25     31.6     50       0.787778973579 0                        
sub214           0821             sub250           0.25     80.09    50       0.464771986008 0                        
sub232           0821             sub269           0.25     23.04    50       1.36031997204 0                        
sub233           0821             RoaJ8            0.25     83.9     50       0.491587013006 0                        
sub234           0821             RoaJ10           0.25     83.66    50       0.640794992447 0                        
sub235           0821             RoaJ508          0.25     67.03    50       0.422071993351 0                        
sub236           0821             RoaJ509          0.25     78.54    50       0.523181974888 0                        
sub237           0821             RoaJ510          0.25     89.75    50       0.463443994522 0                        
sub238           0821             RoaJ786          0.25     65.11    50       0.309156000614 0                        
sub239           0821             sub276           0.25     24.93    50       0.490545988083 0                        
sub24            0821             RoaJ382          0.25     41.8     50       0.50947701931 0                        
sub240           0821             sub276           0.25     41.58    50       0.445073992014 0                        
sub241           0821             RoaJ597          0.25     50.54    50       0.254159003496 0                        
sub242           0821             RoaJ597          0.25     23.7     50       0.331275999546 0                        
sub243           0821             RoaJ6            0.25     41.93    50       0.414923012257 0                        
sub244           0821             RoaJ936          0.25     56.08    50       0.364484012127 0                        
sub245           0821             RoaJ7            0.25     42.69    50       1.21126997471 0                        
sub246           0821             sub245           0.25     84.11    50       0.862011015415 0                        
sub247           0821             RoaJ334          0.25     74.71    50       1.83369004726 0                        
sub248           0821             RoaJ696          0.25     47.54    50       4.20228004456 0                        
sub249           0821             RoaJ695          0.25     58.53    50       2.36167001724 0                        
sub25            0821             OF10             0.25     42.98    50       0.383372992277 0                        
sub250           0821             RoaJ694          0.25     57.58    50       1.89205002785 0                        
sub251           0821             sub250           0.25     88.61    50       0.315149009228 0                        
sub252           0821             RoaJ534          0.25     72.66    50       0.607071995735 0                        
sub26            0821             sub63            0.25     26.09    50       2.57441997528 0                        
sub269           0821             sub306           0.25     25.88    50       1.41946995258 0                        
sub27            0821             sub65            0.25     47.76    50       1.46536004543 0                        
sub270           0821             RoaJ519          0.25     85.51    50       0.561567008495 0                        
sub271           0821             RoaJ538          0.25     71.31    50       0.88395100832 0                        
sub272           0821             sub308           0.25     72.67    50       0.154626995325 0                        
sub273           0821             sub310           0.25     92.2     50       0.174652993679 0                        
sub274           0821             sub312           0.25     80.08    50       0.427635997534 0                        
sub275           0821             RoaJ511          0.25     37.52    50       1.40369999409 0                        
sub276           0821             RoaJ1017         0.25     33.2     50       0.917096972466 0                        
sub277           0821             RoaJ402          0.25     50.3     50       0.419043004513 0                        
sub278           0821             RoaJ596          0.25     46.45    50       0.5473960042 0                        
sub279           0821             RoaJ1004         0.25     40.41    50       0.722407996655 0                        
sub28            0821             RoaJ437          0.25     18.23    50       1.43936002254 0                        
sub280           0821             RoaJ13           0.25     63.31    50       0.500232994556 0                        
sub281           0821             RoaJ942          0.25     55.32    50       0.307855010033 0                        
sub282           0821             RoaJ12           0.25     50.86    50       1.16451001167 0                        
sub283           0821             sub282           0.25     84.98    50       1.03145003319 0                        
sub284           0821             sub248           0.25     88.26    50       0.549363970757 0                        
sub285           0821             sub248           0.25     90.24    50       1.81044995785 0                        
sub286           0821             sub249           0.25     92.52    50       1.88278996944 0                        
sub287           0821             RoaJ990          0.25     84.11    50       1.64516997337 0                        
sub288           0821             sub250           0.25     92.66    50       0.343771010637 0                        
sub289           0821             RoaJ535          0.25     51.38    50       0.699741005898 0                        
sub290           0821             sub327           0.25     48.5     50       0.607288002968 0                        
sub305           0821             sub343           0.25     8.05     50       1.48117005825 0                        
sub306           0821             RoaJ518          0.25     27.48    50       1.09186995029 0                        
sub307           0821             RoaJ518          0.25     84.86    50       0.686538994312 0                        
sub308           0821             RoaJ539          0.25     65.57    50       1.28584003448 0                        
sub309           0821             sub345           0.25     44.33    50       0.432388991117 0                        
sub310           0821             sub348           0.25     92.46    50       0.623471021652 0                        
sub311           0821             sub348           0.25     87.36    50       1.30634999275 0                        
sub312           0821             sub349           0.25     14       50       1.61840999126 0                        
sub313           0821             RoaJ404          0.25     43.04    50       0.776835978031 0                        
sub314           0821             RoaJ403          0.25     18.76    50       0.535179972649 0                        
sub315           0821             sub351           0.25     35.8     50       0.669443011284 0                        
sub316           0821             sub317           0.25     25.92    50       0.358186006546 0                        
sub317           0821             RoaJ1200         0.25     28.85    50       0.606420993805 0                        
sub318           0821             sub356           0.25     65.16    50       0.429809987545 0                        
sub319           0821             RoaJ1189         0.25     44.67    50       1.58012998104 0                        
sub320           0821             RoaJ368          0.25     91.05    50       0.646332979202 0                        
sub321           0821             RoaJ369          0.25     93.78    50       0.283672988415 0                        
sub322           0821             RoaJ370          0.25     93.06    50       0.250620007515 0                        
sub323           0821             RoaJ371          0.25     85.54    50       0.51574498415 0                        
sub324           0821             RoaJ372          0.25     90.48    50       0.500185012817 0                        
sub325           0821             RoaJ1102         0.25     71.13    50       0.589882016182 0                        
sub326           0821             RoaJ536          0.25     70.87    50       0.462134987116 0                        
sub327           0821             sub364           0.25     62.14    50       0.523835003376 0                        
sub328           0821             sub364           0.25     59.91    50       0.249745994806 0                        
sub342           0821             sub379           0.25     0.61     50       2.57306003571 0                        
sub343           0821             RoaJ517          0.25     15.17    50       1.76254999638 0                        
sub344           0821             sub381           0.25     80.02    50       0.836171984673 0                        
sub345           0821             RoaJ540          0.25     71.12    50       1.61191999912 0                        
sub346           0821             sub383           0.25     27.12    50       0.821479976177 0                        
sub347           0821             sub384           0.25     46.26    50       1.22332000732 0                        
sub348           0821             sub385           0.25     43.42    50       1.30436003208 0                        
sub349           0821             sub385           0.25     14.4     50       0.729346990585 0                        
sub350           0821             RoaJ405          0.25     31.2     50       0.812956988811 0                        
sub351           0821             sub350           0.25     23.8     50       0.653477013111 0                        
sub352           0821             sub351           0.25     40.88    50       0.581107974052 0                        
sub353           0821             sub354           0.25     0        50       0.157180994749 0                        
sub354           0821             RoaJ16           0.25     29.2     50       0.370272994041 0                        
sub355           0821             RoaJ865          0.25     52.96    50       0.39059600234 0                        
sub356           0821             RoaJ18           0.25     54.99    50       1.22407996655 0                        
sub357           0821             sub356           0.25     90.64    50       0.849391996861 0                        
sub358           0821             sub394           0.25     100      50       0.317822009325 0                        
sub359           0821             sub395           0.25     100      50       0.181474998593 0                        
sub360           0821             sub397           0.25     86.69    50       0.336773008108 0                        
sub361           0821             sub398           0.25     67.38    50       0.426512002945 0                        
sub362           0821             sub400           0.25     66.1     50       0.553026020527 0                        
sub363           0821             RoaJ537          0.25     32.86    50       0.764003992081 0                        
sub364           0821             sub401           0.25     79.36    50       0.379296988249 0                        
sub365           0821             sub401           0.25     94.55    50       0.332221001387 0                        
sub366           0821             sub365           0.25     82.12    50       0.675391018391 0                        
sub379           0821             RoaJ482          0.25     27.29    50       0.915880024433 0                        
sub380           0821             RoaJ483          0.25     27.94    50       0.654286980629 0                        
sub381           0821             RoaJ484          0.25     50.02    50       0.523235976696 0                        
sub382           0821             RoaJ22           0.25     57.53    50       2.38449001312 0                        
sub383           0821             RoaJ26           0.25     31.52    50       2.17126011848 0                        
sub384           0821             sub420           0.25     79.61    50       1.046200037 0                        
sub385           0821             sub421           0.25     53.52    50       0.460725992918 0                        
sub386           0821             sub385           0.25     40.32    50       0.598888993263 0                        
sub387           0821             RoaJ406          0.25     40.68    50       0.623377025127 0                        
sub388           0821             sub387           0.25     23.52    50       0.970299005508 0                        
sub389           0821             sub388           0.25     53.34    50       0.517045974731 0                        
sub390           0821             sub426           0.25     61.8     50       0.154910996556 0                        
sub391           0821             RoaJ19           0.25     40.42    50       0.274798005819 0                        
sub392           0821             RoaJ856          0.25     31.76    50       0.585322976112 0                        
sub393           0821             RoaJ20           0.25     41.39    50       1.28118002415 0                        
sub394           0821             RoaJ840          0.25     73.39    50       0.806864976883 0                        
sub395           0821             RoaJ591          0.25     82.62    50       0.547250986099 0                        
sub396           0821             RoaJ590          0.25     89.4     50       0.270052999258 0                        
sub397           0821             RoaJ589          0.25     69.12    50       0.414754003286 0                        
sub398           0821             RoaJ588          0.25     53.4     50       0.455139994621 0                        
sub399           0821             RoaJ1191         0.25     59.41    50       0.85672801733 0                        
sub400           0821             RoaJ23           0.25     43.89    50       0.560317993164 0                        
sub401           0821             RoaJ739          0.25     83.83    50       0.48997798562 0                        
sub402           0821             sub439           0.25     95.76    50       0.792360007763 0                        
sub403           0821             sub441           0.25     100      50       1.03422999382 0                        
sub404           0821             sub441           0.25     86.98    50       1.21124005318 0                        
sub410           0821             sub447           0.25     55.24    50       1.54619002342 0                        
sub411           0821             RoaJ282          0.25     58.88    50       1.77953004837 0                        
sub412           0821             RoaJ781          0.25     56.08    50       1.55603003502 0                        
sub413           0821             RoaJ782          0.25     53.04    50       1.85055994987 0                        
sub414           0821             RoaJ783          0.25     61.09    50       1.57436001301 0                        
sub415           0821             RoaJ30           0.25     57.22    50       1.84062004089 0                        
sub416           0821             sub452           0.25     56.2     50       0.419326007366 0                        
sub417           0821             sub454           0.25     4.24     50       0.350001007318 0                        
sub418           0821             sub455           0.25     41.48    50       0.842553019524 0                        
sub419           0821             RoaJ629          0.25     28.64    50       1.19624996185 0                        
sub420           0821             RoaJ642          0.25     17.68    50       1.57764005661 0                        
sub421           0821             RoaJ924          0.25     29.04    50       0.518625020981 0                        
sub422           0821             RoaJ27           0.25     43.26    50       0.498551011086 0                        
sub423           0821             RoaJ1099         0.25     73.78    50       0.802264988422 0                        
sub424           0821             RoaJ407          0.25     56.86    50       0.768959999084 0                        
sub425           0821             RoaJ442          0.25     46.86    50       0.722581982613 0                        
sub426           0821             RoaJ462          0.25     73.66    50       0.66397601366 0                        
sub427           0821             sub463           0.25     39.27    50       0.491340011358 0                        
sub428           0821             RoaJ1024         0.25     43.72    50       0.416997998953 0                        
sub429           0821             sub430           0.25     54.44    50       0.924974024296 0                        
sub430           0821             RoaJ1019         0.25     32.4     50       1.42096996307 0                        
sub431           0821             sub430           0.25     90.27    50       0.599218010902 0                        
sub432           0821             RoaJ1123         0.25     74.68    50       0.434242010117 0                        
sub433           0821             sub395           0.25     92.34    50       0.150677993894 0                        
sub434           0821             sub472           0.25     84.82    50       0.106182001531 0                        
sub435           0821             sub436           0.25     57.36    50       0.284648001194 0                        
sub436           0821             RoaJ1056         0.25     44.36    50       0.93853199482 0                        
sub437           0821             RoaJ497          0.25     70.17    50       0.494336992502 0                        
sub438           0821             RoaJ739          0.25     40.5     50       0.462022989988 0                        
sub439           0821             RoaJ740          0.25     52.54    50       0.584472000599 0                        
sub440           0821             RoaJ563          0.25     55.78    50       1.29716002941 0                        
sub441           0821             RoaJ996          0.25     70.32    50       4.77406978607 0                        
sub442           0821             RoaJ485          0.25     63.8     50       0.803130984306 0                        
sub446           0821             RoaJ1026         0.25     36.37    50       1.33303999901 0                        
sub447           0821             RoaJ1025         0.25     75.1     50       2.56820988655 0                        
sub448           0821             RoaJ36           0.25     34.06    50       1.83888995647 0                        
sub449           0821             RoaJ1096         0.25     29.6     50       1.72581994534 0                        
sub450           0821             sub487           0.25     40.02    50       1.44973003864 0                        
sub451           0821             sub488           0.25     60.87    50       1.61665999889 0                        
sub452           0821             RoaJ838          0.25     69.1     50       1.43114995956 0                        
sub453           0821             sub489           0.25     33.8     50       1.42780995369 0                        
sub454           0821             sub491           0.25     28.11    50       1.24979996681 0                        
sub455           0821             sub492           0.25     41.08    50       0.811100006104 0                        
sub456           0821             RoaJ630          0.25     27.6     50       0.85022598505 0                        
sub457           0821             RoaJ641          0.25     17.68    50       0.936825990677 0                        
sub458           0821             sub494           0.25     25.12    50       0.646350026131 0                        
sub459           0821             RoaJ569          0.25     27.22    50       0.516196012497 0                        
sub460           0821             sub496           0.25     32.67    50       1.53979003429 0                        
sub461           0821             sub498           0.25     54.82    50       2.87948989868 0                        
sub462           0821             RoaJ441          0.25     51.99    50       1.15513002872 0                        
sub463           0821             RoaJ461          0.25     52.6     50       0.649037003517 0                        
sub464           0821             RoaJ31           0.25     53.52    50       0.709335029125 0                        
sub465           0821             RoaJ32           0.25     52.16    50       0.518342971802 0                        
sub466           0821             RoaJ897          0.25     44.68    50       1.34499001503 0                        